$ MSC.Nastran input file created on April     20, 2026 at 10:55:58 by
$ Patran 2022.2
$ Normal Modes Analysis, Database
SOL 103
CEND
$ Direct Text Input for Global Case Control Data
MEFFMASS(ALL,GRID=1)=YES
TITLE = MSC.Nastran job created on 20-Apr-26 at 10:51:19
ECHO = NONE
$ Using Nastran default values for RESVEC
SUBCASE 1
   SUBTITLE=Default
   METHOD = 1
   SPC = 2
   VECTOR(SORT1,REAL)=ALL
$ Direct Text Input for this Subcase
BEGIN BULK
PARAM    POST    0
PARAM   COUPMASS 1
PARAM    GRDPNT  1
PARAM   PRTMAXIM YES
EIGRL    1                       10      0                       MASS
$ Elements and Element Properties for region : boom_prop
PBEAML   1       1               ROD
         .1
$ Pset: "boom_prop" will be imported as: "pbeaml.1"
CBEAM    1       1       1       2       0.      1.      0.
CBEAM    2       1       2       3       0.      1.      0.
CBEAM    3       1       3       4       0.      1.      0.
CBEAM    4       1       4       5       0.      1.      0.
CBEAM    5       1       5       6       0.      1.      0.
CBEAM    6       1       6       7       0.      1.      0.
CBEAM    7       1       7       8       0.      1.      0.
CBEAM    8       1       8       9       0.      1.      0.
CBEAM    9       1       9       10      0.      1.      0.
CBEAM    10      1       10      11      0.      1.      0.
$ Referenced Material Records
$ Material Record : Aluminium
$ Description of Material : Date: 20-Apr-26           Time: 10:42:38
MAT1     1       7.+10   2.6+10  .35     2700.
$ Nodes of the Entire Model
GRID     1               0.      0.      0.
GRID     2               0.      0.      .455
GRID     3               0.      0.     .9100001
GRID     4               0.      0.      1.365
GRID     5               0.      0.      1.82
GRID     6               0.      0.      2.275
GRID     7               0.      0.      2.73
GRID     8               0.      0.      3.185
GRID     9               0.      0.      3.64
GRID     10              0.      0.      4.095
GRID     11              0.      0.      4.55
$ Loads for Load Case : Default
SPCADD   2       1
$ Displacement Constraints of Load Set : clamped
SPC1     1       123456  1
$ Referenced Coordinate Frames
ENDDATA 4eac8d72
