$ MSC.Nastran input file created on April     10, 2026 at 11:12:31 by
$ Patran 2022.2
$ Normal Modes Analysis, Database
SOL 103
CEND
$ Direct Text Input for Global Case Control Data
MEFFMASS(ALL,GRID=1)=YES
TITLE = MSC.Nastran job created on 10-Apr-26 at 11:08:54
ECHO = NONE
$ Using Nastran default values for RESVEC
SUBCASE 1
   SUBTITLE=Default
   METHOD = 1
   SPC = 2
   VECTOR(SORT1,REAL)=ALL
$ Direct Text Input for this Subcase
BEGIN BULK
PARAM    POST    0
PARAM   COUPMASS 1
PARAM    GRDPNT  1
PARAM   PRTMAXIM YES
EIGRL    1                       10      0                       MASS
$ Elements and Element Properties for region : boom_prop
PBEAML   1       1               ROD
         .1
$ Pset: "boom_prop" will be imported as: "pbeaml.1"
CBEAM    1       1       1       2       0.      1.      0.
CBEAM    2       1       2       3       0.      1.      0.
CBEAM    3       1       3       4       0.      1.      0.
CBEAM    4       1       4       5       0.      1.      0.
CBEAM    5       1       5       6       0.      1.      0.
CBEAM    6       1       6       7       0.      1.      0.
CBEAM    7       1       7       8       0.      1.      0.
CBEAM    8       1       8       9       0.      1.      0.
CBEAM    9       1       9       10      0.      1.      0.
CBEAM    10      1       10      11      0.      1.      0.
$ Referenced Material Records
$ Material Record : aluminium
$ Description of Material : Date: 10-Apr-26           Time: 11:03:59
MAT1     1       7.+10   2.6+10  .35     2700.
$ Nodes of the Entire Model
GRID     1               0.      0.      0.
GRID     2               0.      0.      .47
GRID     3               0.      0.      .94
GRID     4               0.      0.      1.41
GRID     5               0.      0.      1.88
GRID     6               0.      0.      2.35
GRID     7               0.      0.      2.82
GRID     8               0.      0.      3.29
GRID     9               0.      0.      3.76
GRID     10              0.      0.      4.23
GRID     11              0.      0.      4.7
$ Loads for Load Case : Default
SPCADD   2       1
$ Displacement Constraints of Load Set : clamped
SPC1     1       123456  1
$ Referenced Coordinate Frames
ENDDATA d5aeedba
